Circuit: * F:\Smit SIT\College\Google Classroom\Second year\Sem 4\ACD\Lab\LTSpice\Non Inverting Adder DC\noninverting_adder_dc.asc

Direct Newton iteration for .op point succeeded.

Date: Sat Feb 02 19:56:47 2019
Total elapsed time: 0.090 seconds.

tnom = 27
temp = 27
method = modified trap
totiter = 2102
traniter = 2082
tranpoints = 1042
accept = 1042
rejected = 0
matrix size = 12
fillins = 1
solver = Normal
Matrix Compiler1: 500 bytes object code size  0.4/0.4/[0.1]
Matrix Compiler2: off  [0.3]/0.4/0.5

