Circuit: * F:\Smit SIT\College\Google Classroom\Second year\Sem 4\ACD\Lab\LTSpice\Non Inverting Comparator\ni_c.asc

Direct Newton iteration failed to find .op point.  (Use ".option noopiter" to skip.)
Starting Gmin stepping
Gmin = 10
Gmin = 1.07374
Gmin = 0.115292
Gmin = 0.0123794
Gmin = 0.00132923
Gmin = 0.000142725
Gmin = 1.5325e-005
Gmin = 1.6455e-006
Gmin = 1.76685e-007
Gmin = 1.89714e-008
Gmin = 2.03704e-009
Gmin = 2.18725e-010
Gmin = 2.34854e-011
Gmin = 2.52173e-012
Gmin = 2.70769e-013
Gmin = 0
Gmin stepping succeeded in finding the operating point.


Date: Tue Feb 12 14:32:15 2019
Total elapsed time: 0.059 seconds.

tnom = 27
temp = 27
method = modified trap
totiter = 4702
traniter = 4313
tranpoints = 1637
accept = 1447
rejected = 190
matrix size = 12
fillins = 0
solver = Normal
Matrix Compiler1: 500 bytes object code size  0.2/0.1/[0.0]
Matrix Compiler2: 898 bytes object code size  0.2/0.2/[0.1]

