Circuit: * F:\Smit SIT\College\Google Classroom\Second year\Sem 4\ACD\Lab\LTSpice\Inverting Adder DC\Inverting Adder DC.asc

Direct Newton iteration for .op point succeeded.

Date: Sat Feb 02 20:02:21 2019
Total elapsed time: 0.080 seconds.

tnom = 27
temp = 27
method = modified trap
totiter = 2115
traniter = 2082
tranpoints = 1042
accept = 1042
rejected = 0
matrix size = 11
fillins = 1
solver = Normal
Matrix Compiler1: 468 bytes object code size  0.2/0.1/[0.0]
Matrix Compiler2: off  [0.2]/0.2/0.2

