Circuit: * F:\Smit SIT\College\Google Classroom\Second year\Sem 4\ACD\Lab\LTSpice\Non Inverting Adder AC\noninverting_adder_ac.asc

Direct Newton iteration for .op point succeeded.

Date: Sat Feb 02 19:53:54 2019
Total elapsed time: 0.080 seconds.

tnom = 27
temp = 27
method = modified trap
totiter = 2085
traniter = 2082
tranpoints = 1042
accept = 1042
rejected = 0
matrix size = 12
fillins = 1
solver = Normal
Matrix Compiler1:      30 opcodes  0.3/[0.1]/0.1
Matrix Compiler2: 976 bytes object code size  0.2/0.2/[0.1]

