Circuit: * F:\Smit SIT\College\Google Classroom\Second year\Sem 4\ACD\Lab\LTSpice\Non Inverting close loop\noninverting closeloop.asc

Direct Newton iteration for .op point succeeded.

Date: Sat Feb 02 19:51:23 2019
Total elapsed time: 0.090 seconds.

tnom = 27
temp = 27
method = modified trap
totiter = 3867
traniter = 3864
tranpoints = 1512
accept = 1370
rejected = 142
matrix size = 9
fillins = 0
solver = Normal
Matrix Compiler1: 386 bytes object code size  0.2/0.1/[0.1]
Matrix Compiler2: 645 bytes object code size  0.1/0.2/[0.1]

