Circuit: * F:\Smit SIT\College\Google Classroom\Second year\Sem 4\ACD\Lab\LTSpice\Inverting Adder AC\Inverting_adder_ac.asc

Direct Newton iteration for .op point succeeded.

Date: Sat Feb 02 19:59:38 2019
Total elapsed time: 0.050 seconds.

tnom = 27
temp = 27
method = modified trap
totiter = 2085
traniter = 2082
tranpoints = 1042
accept = 1042
rejected = 0
matrix size = 11
fillins = 1
solver = Normal
Matrix Compiler1: 450 bytes object code size  0.2/0.1/[0.0]
Matrix Compiler2: 849 bytes object code size  0.1/0.3/[0.1]

