Circuit: * F:\Smit SIT\College\Google Classroom\Second year\Sem 4\ACD\Lab\LTSpice\IC555 astable\astable555.asc

Direct Newton iteration for .op point succeeded.

Date: Tue Apr 02 14:07:37 2019
Total elapsed time: 0.141 seconds.

tnom = 27
temp = 27
method = modified trap
totiter = 10407
traniter = 10399
tranpoints = 2759
accept = 2351
rejected = 408
matrix size = 14
fillins = 0
solver = Normal
Matrix Compiler1: 384 bytes object code size  0.4/0.2/[0.1]
Matrix Compiler2: 776 bytes object code size  0.2/0.4/[0.2]

